bench/sd2010.raw
0,   100.00, 31, 0, 1, 50.00     / PSS(R)E-31.0    MON, MAY 22 2017  21:05
2010Äê»ªÖÐ»ª±±ÁªÍø¶¬1217(ÕýÊ½·¢²¼)  CASE NO. 214 ,CONVERTED
BY APSAL, SHANDONG UNIVERSITY, ON 2010-03-22 07:57:04 PM
127100,'¼½ÐÁ°²51    ', 525.0000,3,   2,   2,   1,1.00000,   0.0000
129133,'¼½»Ææè51    ', 525.0000,2,   2,   2,   1,1.00000,  -8.4505
151801,'Â³°²¶«Õ¾10.5',  10.5000,1,   7,  18,   1,0.93610, -13.0430
151802,'Â³°²¶«Õ¾220 ', 230.0000,1,   7,  18,   1,0.94842,  -7.6449
151803,'Â³°²¶«Õ¾2ºÅ ',   1.0000,1,   7,  18,   1,0.91842, -13.0247
151804,'Â³°²¶«Õ¾3ºÅ ',   1.0000,1,   7,  18,   1,0.91838, -13.0385
151805,'Â³°²ÇðÕ¾1ºÅ ',   1.0000,1,   7,  18,   1,0.95061, -22.0778
151806,'Â³°²ÇðÕ¾220 ', 230.0000,1,   7,  18,   1,0.96852, -17.7932
151807,'Â³°²ÇðÕ¾2ºÅ ',   1.0000,1,   7,  18,   1,0.95069, -22.0638
151808,'Â³°²ÇðÕ¾35  ',  38.5000,1,   7,  18,   1,0.96090, -22.0861
151809,'Â³°Ë½Ç³§1ºÅ ',  20.0000,2,   7,  18,   1,0.89545, -35.6210
151810,'Â³°Ë½Ç³§220 ', 230.0000,1,   7,  18,   1,0.89545, -35.6210
151812,'Â³°ËÀïÕ¾1ºÅ ',   1.0000,1,   7,  18,   1,0.92709,  -8.0133
151813,'Â³°ËÀïÕ¾220 ', 230.0000,1,   7,  18,   1,0.95285,  -3.2277
151814,'Â³°ËÀïÕ¾2ºÅ ',   1.0000,1,   7,  18,   1,0.92739,  -8.0747
151815,'Â³°ËÀïÕ¾35  ',  38.5000,1,   7,  18,   1,0.93312,  -8.0519
151816,'Â³°×ÑîºÓ³§02',   6.3000,1,   7,  18,   1,0.90249, -21.5665
151818,'Â³°×ÑîºÓ³§4 ',  13.8000,2,   7,  18,   1,0.91806, -19.1395
151819,'Â³°×ÑîºÓ³§4 ',   1.0000,1,   7,  18,   1,0.91806, -19.1395
151820,'Â³°×ÑîºÓ³§5 ',  13.8000,2,   7,  18,   1,0.91815, -19.1260
151821,'Â³°×ÑîºÓ³§5 ',   1.0000,1,   7,  18,   1,0.91815, -19.1260
151822,'Â³°×ÑîºÓ³§6 ',  20.0000,2,   7,  18,   1,1.00000,  -4.4692
151823,'Â³°×ÑîºÓ³§7 ',  20.0000,2,   7,  18,   1,0.93196, -16.3850
151825,'Â³°×ÑîºÓ¼×22', 230.0000,1,   7,  18,   1,0.94479, -15.6284
151830,'Â³°×ÑîºÓÒÒ22', 230.0000,1,   7,  18,   1,0.94413, -15.6898
151833,'Â³°××¯Õ¾1ºÅ ',   1.0000,1,   7,  18,   1,0.92479, -13.8112
151834,'Â³°××¯Õ¾220 ', 230.0000,1,   7,  18,   1,0.94489, -10.6589
151835,'Â³°××¯Õ¾2ºÅ ',   1.0000,1,   7,  18,   1,0.92489, -13.8054
151836,'Â³°××¯Õ¾35  ',  38.5000,1,   7,  18,   1,0.92795, -13.8133
151837,'Â³°ÙÂöÕ¾1ºÅ ',   1.0000,1,   7,  18,   1,0.93246, -21.3639
151838,'Â³°ÙÂöÕ¾220 ', 230.0000,1,   7,  18,   1,0.95687, -16.5502
151839,'Â³°ÙÂöÕ¾2ºÅ ',   1.0000,1,   7,  18,   1,0.93244, -21.3682
151840,'Â³°ÙÂöÕ¾35  ',  38.5000,1,   7,  18,   1,0.93954, -21.3721
151841,'Â³±¦¶¼Õ¾1ºÅ ',   1.0000,1,   7,  18,   1,0.94682, -24.7225
151842,'Â³±¦¶¼Õ¾220 ', 230.0000,1,   7,  18,   1,0.96162, -20.8926
151843,'Â³±¦¶¼Õ¾2ºÅ ',   1.0000,1,   7,  18,   1,0.94520, -24.8215
151844,'Â³±¦¶¼Õ¾35  ',  38.5000,1,   7,  18,   1,0.95506, -24.7769
151845,'Â³±¦ÈªÕ¾1ºÅ ',   1.0000,1,   7,  18,   1,0.91432, -20.9072
151846,'Â³±¦ÈªÕ¾220 ', 230.0000,1,   7,  18,   1,0.93721, -14.4080
151847,'Â³±¦ÈªÕ¾2ºÅ ',   1.0000,1,   7,  18,   1,0.91442, -20.8986
151848,'Â³±¦ÈªÕ¾35  ',  38.5000,1,   7,  18,   1,0.92654, -20.9221
151849,'Â³±±º£Õ¾1ºÅ ',   1.0000,1,   7,  18,   1,0.94366, -25.1635
151850,'Â³±±º£Õ¾220 ', 230.0000,1,   7,  18,   1,0.97044, -21.6121
151851,'Â³±±º£Õ¾35  ',  38.5000,1,   7,  18,   1,0.94366, -25.1635
151852,'Â³±±ÂíÕ¾1ºÅ ',   1.0000,1,   7,  18,   1,0.89959, -35.2672
151853,'Â³±±ÂíÕ¾220 ', 230.0000,1,   7,  18,   1,0.91208, -33.2137
151854,'Â³±±ÂíÕ¾2ºÅ ',   1.0000,1,   7,  18,   1,0.89959, -35.2672
151855,'Â³±±ÂíÕ¾35  ',  38.5000,1,   7,  18,   1,0.89959, -35.2672
151860,'Â³±õºþÕ¾220 ', 230.0000,1,   7,  18,   1,0.96937,  -3.3231
151861,'Â³±õºþÕ¾35  ',  38.5000,1,   7,  18,   1,0.96057,  -4.5044
151862,'Â³±õºþÕ¾3ºÅ ',   1.0000,1,   7,  18,   1,0.96057,  -4.5044
151864,'Â³±õÖÝÕ¾220 ', 230.0000,1,   7,  18,   1,0.98716, -17.8371
151866,'Â³±õÖÝÕ¾353 ',  38.5000,1,   7,  18,   1,1.02177, -18.1691
151867,'Â³±õÖÝÕ¾3ºÅ ',   1.0000,1,   7,  18,   1,0.98617, -18.1413
151874,'Â³²©É½Õ¾1ºÅ ',   1.0000,1,   7,  18,   1,0.91950, -20.8065
151875,'Â³²©É½Õ¾220 ', 230.0000,1,   7,  18,   1,0.94718, -15.7643
151876,'Â³²©É½Õ¾2ºÅ ',   1.0000,1,   7,  18,   1,0.91954, -20.8073
151877,'Â³²ÊºçÕ¾10.5',  11.0000,1,   7,  18,   1,0.93593, -20.3623
151878,'Â³²ÊºçÕ¾1ºÅ ',   1.0000,1,   7,  18,   1,0.93593, -20.3623
151879,'Â³²ÊºçÕ¾220 ', 230.0000,1,   7,  18,   1,0.94911, -18.4315
151880,'Â³²Ï×¯Õ¾1ºÅ ',   1.0000,1,   7,  18,   1,0.89800, -37.1822
151881,'Â³²Ï×¯Õ¾220 ', 230.0000,1,   7,  18,   1,0.91342, -32.9062
151882,'Â³²Ï×¯Õ¾2ºÅ ',   1.0000,1,   7,  18,   1,0.89826, -37.1861
151883,'Â³²Ï×¯Õ¾35  ',  38.5000,1,   7,  18,   1,0.90570, -37.1948
151884,'Â³²ÔÉ½Õ¾1ºÅ ',   1.0000,1,   7,  18,   1,0.93606, -18.8427
151885,'Â³²ÔÉ½Õ¾220 ', 230.0000,1,   7,  18,   1,0.93163, -15.7609
151886,'Â³²ÔÉ½Õ¾2ºÅ ',   1.0000,1,   7,  18,   1,0.93575, -18.8976
151887,'Â³²ÔÉ½Õ¾35  ',  38.5000,1,   7,  18,   1,0.95167, -18.8962
151888,'Â³²Ü³ÇÕ¾1ºÅ ',   1.0000,1,   7,  18,   1,0.92264, -17.1953
151889,'Â³²Ü³ÇÕ¾220 ', 230.0000,1,   7,  18,   1,0.93497, -13.0214
151890,'Â³²Ü³ÇÕ¾2ºÅ ',   1.0000,1,   7,  18,   1,0.92323, -17.2664
151891,'Â³²Ü³ÇÕ¾35  ',  38.5000,1,   7,  18,   1,0.93228, -17.2486
151892,'Â³²ýÒØÕ¾1ºÅ ',   1.0000,1,   7,  18,   1,0.92248, -25.2484
151893,'Â³²ýÒØÕ¾220 ', 230.0000,1,   7,  18,   1,0.95561, -18.9619
151894,'Â³²ýÒØÕ¾2ºÅ ',   1.0000,1,   7,  18,   1,0.92351, -25.1240
151895,'Â³²ýÒØÕ¾35  ',  38.5000,1,   7,  18,   1,0.93337, -25.2133
151896,'Â³³¤ÇåÕ¾220 ', 230.0000,1,   7,  18,   1,0.96285, -13.9504
151897,'Â³³¤ÇåÕ¾2ºÅ ',   1.0000,1,   7,  18,   1,0.96136, -14.3031
151898,'Â³³¤ÇåÕ¾352 ',  38.5000,1,   7,  18,   1,0.99397, -14.3238
151899,'Â³³¤ÇåÕ¾353 ',  38.5000,1,   7,  18,   1,0.99571, -14.2503
151900,'Â³³¤ÇåÕ¾3ºÅ ',   1.0000,1,   7,  18,   1,0.96113, -14.2423
151906,'Â³³¤ÇåÕ¾500 ', 525.0000,1,   7,  18,   1,0.97264, -10.2190
151907,'Â³³¤É×Õ¾11  ',  11.0000,1,   7,  18,   1,0.93810, -15.7449
151908,'Â³³¤É×Õ¾1ºÅ ',   1.0000,1,   7,  18,   1,0.93829, -15.7218
151909,'Â³³¤É×Õ¾220 ', 230.0000,1,   7,  18,   1,0.95656, -13.3022
151910,'Â³³¤É×Õ¾2ºÅ ',   1.0000,1,   7,  18,   1,0.93794, -15.7642
151911,'Â³³£ÁÖÕ¾1ºÅ ',   1.0000,1,   7,  18,   1,0.92078, -19.2563
151912,'Â³³£ÁÖÕ¾220 ', 230.0000,1,   7,  18,   1,0.94271, -13.5415
151913,'Â³³£ÁÖÕ¾35  ',  38.5000,1,   7,  18,   1,0.93535, -19.2830
151914,'Â³³µµÀÕ¾1ºÅ ',   1.0000,1,   7,  18,   1,0.90252, -34.1844
151915,'Â³³µµÀÕ¾220 ', 230.0000,1,   7,  18,   1,0.92199, -30.1748
151916,'Â³³µµÀÕ¾2ºÅ ',   1.0000,1,   7,  18,   1,0.90188, -34.2431
151917,'Â³³µµÀÕ¾35  ',  38.5000,1,   7,  18,   1,0.91006, -34.2297
151918,'Â³³µÍõÕ¾1ºÅ ',   1.0000,1,   7,  18,   1,0.96362, -21.3739
151919,'Â³³µÍõÕ¾220 ', 230.0000,1,   7,  18,   1,0.97984, -18.9726
151920,'Â³³µÍõÕ¾2ºÅ ',   1.0000,1,   7,  18,   1,0.96380, -21.3863
151921,'Â³³µÍõÕ¾35  ',  38.5000,1,   7,  18,   1,0.96675, -21.3807
151922,'Â³³¿Ãù3ºÅÖÐ ',   1.0000,1,   7,  18,   1,0.92735, -27.1445
151923,'Â³³¿ÃùÈÈµç11', 115.0000,1,   7,  18,   1,0.91286, -30.5049
151924,'Â³³¿ÃùÈÈµç22', 230.0000,1,   7,  18,   1,0.95598, -22.1161
151925,'Â³³¿ÃùÈÈµç3 ',  15.7500,2,   7,  18,   1,0.92735, -27.1445
151926,'Â³ÜÝÆ½³§01ºÅ',   1.0000,1,   7,  18,   1,0.91647, -12.7308
151927,'Â³ÜÝÆ½³§02ºÅ',   1.0000,1,   7,  18,   1,0.91647, -12.7308
151928,'Â³ÜÝÆ½³§110 ', 115.0000,1,   7,  18,   1,0.90341, -14.0912
151929,'Â³ÜÝÆ½³§220 ', 230.0000,1,   7,  18,   1,0.93000, -11.4113
151930,'Â³ÜÝÆ½³§35  ',  38.5000,1,   7,  18,   1,0.94955,  -8.6746
151931,'Â³ÜÝÆ½³§6.3 ',   6.3000,1,   7,  18,   1,0.91647, -12.7308
151932,'Â³ÜÝÆ½³§6ºÅ ',  13.8000,2,   7,  18,   1,0.90341, -14.0912
151933,'Â³ÜÝÆ½³§7ºÅ ',  13.8000,2,   7,  18,   1,0.94626,  -9.0153
151934,'Â³ÜÝÆ½³§7ºÅ ',   1.0000,1,   7,  18,   1,0.94955,  -8.6746
151935,'Â³ÜÝÆ½³§8ºÅ ',  13.8000,2,   7,  18,   1,0.91834, -12.1521
151936,'Â³ÜÝÆ½³§9ºÅ ',  13.8000,2,   7,  18,   1,0.93000, -11.4113
151937,'Â³³åÉ½Õ¾1ºÅ ',   1.0000,1,   7,  18,   1,0.93493, -20.7164
151938,'Â³³åÉ½Õ¾220 ', 230.0000,1,   7,  18,   1,0.95234, -15.5646
151939,'Â³³åÉ½Õ¾35  ',  38.5000,1,   7,  18,   1,0.94699, -20.7505
151940,'Â³³çÒåÕ¾1ºÅ ',   1.0000,1,   7,  18,   1,0.88083, -39.9508
151941,'Â³³çÒåÕ¾220 ', 230.0000,1,   7,  18,   1,0.88847, -37.1241
151942,'Â³³çÒåÕ¾2ºÅ ',   1.0000,1,   7,  18,   1,0.88094, -39.9395
151943,'Â³³çÒåÕ¾35  ',  38.5000,1,   7,  18,   1,0.88554, -39.9530
151945,'Â³´ó°²Õ¾1ºÅ ',   1.0000,1,   7,  18,   1,0.95090,  -6.2885
151946,'Â³´ó°²Õ¾220 ', 230.0000,1,   7,  18,   1,0.95949,  -3.7614
151947,'Â³´ó°²Õ¾35  ',  38.5000,1,   7,  18,   1,0.95691,  -6.2960
151955,'Â³´óÐËÕ¾1ºÅ ',   1.0000,1,   7,  18,   1,0.91578, -27.0562
151956,'Â³´óÐËÕ¾220 ', 230.0000,1,   7,  18,   1,0.94459, -20.1406
151958,'Â³´óÐËÕ¾35  ',  38.5000,1,   7,  18,   1,0.93033, -27.0811
151959,'Â³´óÑîÕ¾1ºÅ ',   1.0000,1,   7,  18,   1,0.96879, -19.1376
151960,'Â³´óÑîÕ¾220 ', 230.0000,1,   7,  18,   1,0.98071, -16.5130
151961,'Â³´óÑîÕ¾35  ',  38.5000,1,   7,  18,   1,0.97484, -19.1350
151963,'Â³´óÔóÕ¾220 ', 230.0000,1,   7,  18,   1,0.97177, -21.2153
151964,'Â³´óÔóÕ¾2ºÅ ',   1.0000,1,   7,  18,   1,0.96979, -21.5801
151966,'Â³´óÔóÕ¾352 ',  38.5000,1,   7,  18,   1,1.00916, -21.6047
151973,'Â³´óÔóÕ¾500 ', 525.0000,1,   7,  18,   1,0.97020, -18.9215
151974,'Â³´óÕýÕ¾10.5',  10.5000,1,   7,  18,   1,0.92792, -24.8620
151976,'Â³´óÕýÕ¾220 ', 230.0000,1,   7,  18,   1,0.95218, -17.7080
151977,'Â³´óÕýÕ¾2ºÅ ',   1.0000,1,   7,  18,   1,0.91022, -24.8527
151978,'Â³´ó×¯Õ¾1ºÅ ',   1.0000,1,   7,  18,   1,0.93673, -18.5029
151979,'Â³´ó×¯Õ¾220 ', 230.0000,1,   7,  18,   1,0.96054, -14.6170
151980,'Â³´ó×¯Õ¾2ºÅ ',   1.0000,1,   7,  18,   1,0.93687, -18.4917
151981,'Â³´ó×¯Õ¾35  ',  38.5000,1,   7,  18,   1,0.93950, -18.4937
151982,'Â³´ó×¯Õ¾3ºÅ ',   1.0000,1,   7,  18,   1,0.93684, -18.4773
151983,'Â³µ¥³ÇÕ¾1ºÅ ',   1.0000,1,   7,  18,   1,0.91704, -17.9694
151984,'Â³µ¥³ÇÕ¾220 ', 230.0000,1,   7,  18,   1,0.92844, -13.5323
151985,'Â³µ¥³ÇÕ¾2ºÅ ',   1.0000,1,   7,  18,   1,0.91628, -18.0442
151986,'Â³µ¥³ÇÕ¾35  ',  38.5000,1,   7,  18,   1,0.92504, -18.0191
151987,'Â³µ³¼Ò×¯Õ¾10',  10.5000,1,   7,  18,   1,0.92977, -21.7270
151989,'Â³µ³¼Ò×¯Õ¾1 ',   1.0000,1,   7,  18,   1,0.91296, -21.7073
151990,'Â³µ³¼Ò×¯Õ¾22', 230.0000,1,   7,  18,   1,0.94020, -16.7362
151991,'Â³µ³¼Ò×¯Õ¾2 ',   1.0000,1,   7,  18,   1,0.91295, -21.7066
151992,'Â³µÂÖÝÕ¾220 ', 230.0000,1,   7,  18,   1,0.96772, -17.6411
151993,'Â³µÂÖÝÕ¾2ºÅ ',   1.0000,1,   7,  18,   1,0.96503, -18.2477
151994,'Â³µÂÖÝÕ¾352 ',  38.5000,1,   7,  18,   1,0.99812, -18.2741
151995,'Â³µÂÖÝÕ¾353 ',  38.5000,1,   7,  18,   1,0.96736, -18.2477
151996,'Â³µÂÖÝÕ¾3ºÅ ',   1.0000,1,   7,  18,   1,0.96736, -18.2477
152001,'Â³µÂÖÝÕ¾500 ', 525.0000,1,   7,  18,   1,0.97535, -13.5683
152002,'Â³¶¡×¯Õ¾1ºÅ ',   1.0000,1,   7,  18,   1,0.97499, -23.7565
152003,'Â³¶¡×¯Õ¾220 ', 230.0000,1,   7,  18,   1,0.98018, -23.0250
152004,'Â³¶¡×¯Õ¾2ºÅ ',   1.0000,1,   7,  18,   1,0.97499, -23.7565
152005,'Â³¶¡×¯Õ¾35  ',  38.5000,1,   7,  18,   1,0.97499, -23.7565
152006,'Â³¶«³ÇÕ¾10.5',  11.0000,1,   7,  18,   1,0.94943, -28.7964
152007,'Â³¶«³ÇÕ¾1ºÅ ',   1.0000,1,   7,  18,   1,0.94246, -28.6886
152008,'Â³¶«³ÇÕ¾220 ', 230.0000,1,   7,  18,   1,0.97118, -23.9951
152009,'Â³¶«³ÇÕ¾2ºÅ ',   1.0000,1,   7,  18,   1,0.94227, -28.8867
152010,'Â³¶«¸ÛÕ¾11  ',  11.0000,1,   7,  18,   1,0.93672, -10.1374
152011,'Â³¶«¸ÛÕ¾1ºÅ ',   1.0000,1,   7,  18,   1,0.93676, -10.1234
152012,'Â³¶«¸ÛÕ¾220 ', 230.0000,1,   7,  18,   1,0.95762,  -7.1450
152013,'Â³¶«¸ÛÕ¾2ºÅ ',   1.0000,1,   7,  18,   1,0.93667, -10.1519
152014,'Â³¶«º£³§01ºÅ',   6.3000,1,   7,  18,   1,0.87021, -37.7891
152015,'Â³¶«º£³§02ºÅ',   6.3000,1,   7,  18,   1,0.87021, -37.7891
152016,'Â³¶«º£³§02ÖÐ',   6.3000,1,   7,  18,   1,0.87021, -37.7891
152017,'Â³¶«º£³§1ºÅ ',  13.8000,2,   7,  18,   1,0.87021, -37.7891
152018,'Â³¶«º£³§220 ', 230.0000,1,   7,  18,   1,0.87021, -37.7891
152019,'Â³¶«º£³§2ºÅ ',  13.8000,2,   7,  18,   1,0.86330, -38.2769
152020,'Â³¶«º£³§3ºÅ ',  18.0000,2,   7,  18,   1,0.90831, -30.2001
152021,'Â³¶«º£³§4ºÅ ',  18.0000,2,   7,  18,   1,0.90831, -30.2001
152022,'Â³¶«º£³§6.3 ',   6.3000,1,   7,  18,   1,0.87021, -37.7891
152023,'Â³¶«½­Õ¾1ºÅ ',   1.0000,1,   7,  18,   1,0.86026, -45.8466
152024,'Â³¶«½­Õ¾220 ', 230.0000,1,   7,  18,   1,0.87571, -37.7159
152025,'Â³¶«½­Õ¾2ºÅ ',   1.0000,1,   7,  18,   1,0.85987, -45.9519
152026,'Â³¶«½­Õ¾35  ',  38.5000,1,   7,  18,   1,0.87547, -45.9281
152027,'Â³¶«ÃÅÕ¾10.5',  10.5000,1,   7,  18,   1,0.95502, -22.3383
152028,'Â³¶«ÃÅÕ¾1ºÅ ',   1.0000,1,   7,  18,   1,0.92966, -22.3908
152029,'Â³¶«ÃÅÕ¾220 ', 230.0000,1,   7,  18,   1,0.94797, -18.6930
152030,'Â³¶«ÃÅÕ¾2ºÅ ',   1.0000,1,   7,  18,   1,0.92990, -22.2427
152032,'Â³¶«Ã÷Õ¾220 ', 230.0000,1,   7,  18,   1,0.95259, -10.5277
152033,'Â³¶«Ã÷Õ¾2ºÅ ',   1.0000,1,   7,  18,   1,0.93565, -13.7131
152034,'Â³¶«Ã÷Õ¾35  ',  38.5000,1,   7,  18,   1,0.93969, -13.7180
152035,'Â³¶«Ã÷Õ¾3ºÅ ',   1.0000,1,   7,  18,   1,0.93555, -13.7105
152037,'Â³¶­¼ÒÕ¾1ºÅ ',   1.0000,1,   7,  18,   1,0.95480, -15.5816
152038,'Â³¶­¼ÒÕ¾220 ', 230.0000,1,   7,  18,   1,0.96258, -14.4738
152039,'Â³¶­¼ÒÕ¾2ºÅ ',   1.0000,1,   7,  18,   1,0.95481, -15.5819
152040,'Â³¶­¼ÒÕ¾35  ',  38.5000,1,   7,  18,   1,0.95480, -15.5818
152041,'Â³¶ÅÃíÕ¾1ºÅ ',   1.0000,1,   7,  18,   1,0.94624,  -6.7268
152042,'Â³¶ÅÃíÕ¾220 ', 230.0000,1,   7,  18,   1,0.96596,  -3.8580
152043,'Â³¶ÅÃíÕ¾2ºÅ ',   1.0000,1,   7,  18,   1,0.94587,  -6.8002
152044,'Â³¶ÅÃíÕ¾35  ',  38.5000,1,   7,  18,   1,0.94606,  -6.7618
152046,'Â³¶Å×¯Õ¾220 ', 230.0000,1,   7,  18,   1,0.95631, -10.1016
152047,'Â³¶Å×¯Õ¾35  ',  38.5000,1,   7,  18,   1,0.95464, -12.9346
152048,'Â³¶Å×¯Õ¾3ºÅ ',   1.0000,1,   7,  18,   1,0.94848, -12.9255
152049,'Â³¶Ë×¯Õ¾1ºÅ ',   1.0000,1,   7,  18,   1,0.92822, -12.8644
152050,'Â³¶Ë×¯Õ¾220 ', 230.0000,1,   7,  18,   1,0.94641,  -9.6380
...
0 / END OF BUS DATA, BEGIN LOAD DATA
151809,'1 ',0,   7,  18,     0.000,     0.000,     0.000,     0.000,    47.570,   -47.570,   1
151818,'1 ',0,   7,  18,     0.000,     0.000,     0.000,     0.000,    10.686,    -9.498,   1
151820,'1 ',0,   7,  18,     0.000,     0.000,     0.000,     0.000,    10.684,    -9.496,   1
151822,'1 ',1,   7,  18,     0.000,     0.000,     0.000,     0.000,    18.000,   -18.000,   1
151823,'1 ',1,   7,  18,     0.000,     0.000,     0.000,     0.000,    20.737,   -20.737,   1
151923,'1 ',1,   7,  18,     0.000,     0.000,    50.554,    84.931,    60.103,    67.315,   1
151925,'1 ',0,   7,  18,     0.000,     0.000,     0.000,     0.000,    17.470,   -16.306,   1
151928,'1 ',1,   7,  18,     0.000,     0.000,     0.000,     0.000,   257.259,  -134.755,   1
151929,'1 ',1,   7,  18,     0.000,     0.000,     0.000,     0.000,   300.552,  -144.496,   1
151932,'1 ',0,   7,  18,     0.000,     0.000,     0.000,     0.000,    15.926,   -14.701,   1
151933,'1 ',1,   7,  18,     0.000,     0.000,     0.000,     0.000,    14.516,   -13.400,   1
151935,'1 ',1,   7,  18,     0.000,     0.000,     0.000,     0.000,    15.412,   -14.226,   1
151936,'1 ',0,   7,  18,     0.000,     0.000,     0.000,     0.000,    15.028,   -13.872,   1
152017,'1 ',0,   7,  18,     0.000,     0.000,     0.000,     0.000,    11.926,   -10.601,   1
152018,'1 ',1,   7,  18,     0.000,     0.000,     0.000,     0.000,   463.802,  -198.772,   1
152019,'1 ',1,   7,  18,     0.000,     0.000,     0.000,     0.000,    12.118,   -10.772,   1
152020,'1 ',1,   7,  18,     0.000,     0.000,     0.000,     0.000,    17.024,   -14.592,   1
152021,'1 ',1,   7,  18,     0.000,     0.000,     0.000,     0.000,    17.024,   -14.592,   1
152074,'1 ',1,   7,  18,     0.000,     0.000,     0.000,     0.000,    36.000,   -36.000,   1
152076,'1 ',1,   7,  18,     0.000,     0.000,     0.000,     0.000,    36.000,   -36.000,   1
152191,'1 ',1,   7,  18,     0.000,     0.000,     0.000,     0.000,     9.231,    -9.231,   1
152194,'1 ',1,   7,  18,     0.000,     0.000,     0.000,     0.000,     9.232,    -9.232,   1
152196,'1 ',1,   7,  18,     0.000,     0.000,     0.000,     0.000,    20.000,   -18.000,   1
152197,'1 ',1,   7,  18,     0.000,     0.000,     0.000,     0.000,    21.994,   -21.994,   1
152198,'1 ',1,   7,  18,     0.000,     0.000,     0.000,     0.000,    20.000,   -20.000,   1
152200,'1 ',1,   7,  18,     0.000,     0.000,     0.000,     0.000,    22.047,   -22.047,   1
152201,'1 ',1,   7,  18,     0.000,     0.000,     0.000,     0.000,   330.457,  -158.619,   1
152230,'1 ',0,   7,  18,     0.000,     0.000,     0.000,     0.000,    20.001,   -18.948,   1
152232,'1 ',0,   7,  18,     0.000,     0.000,     0.000,     0.000,    20.001,   -18.948,   1
152234,'1 ',1,   7,  18,     0.000,     0.000,     0.000,     0.000,    19.000,   -18.000,   1
152235,'1 ',1,   7,  18,     0.000,     0.000,     0.000,     0.000,    18.000,   -18.000,   1
152242,'1 ',1,   7,  18,     0.000,     0.000,     0.000,     0.000,    38.000,   -38.000,   1
152244,'1 ',1,   7,  18,     0.000,     0.000,     0.000,     0.000,    39.905,   -39.905,   1
152251,'1 ',1,   7,  18,     0.000,     0.000,     0.000,     0.000,    15.305,   -12.244,   1
152252,'1 ',1,   7,  18,     0.000,     0.000,     0.000,     0.000,    45.733,   -14.863,   1
152253,'1 ',1,   7,  18,     0.000,     0.000,     0.000,     0.000,    15.174,   -12.139,   1
152254,'1 ',1,   7,  18,     0.000,     0.000,     0.000,     0.000,    17.605,   -14.084,   1
152281,'1 ',1,   7,  18,     0.000,     0.000,     0.000,     0.000,    15.000,   -13.000,   1
152282,'1 ',1,   7,  18,     0.000,     0.000,     0.000,     0.000,    15.000,   -13.000,   1
152283,'1 ',1,   7,  18,     0.000,     0.000,     0.000,     0.000,    38.000,   -38.000,   1
152286,'1 ',1,   7,  18,     0.000,     0.000,     0.000,     0.000,    38.000,   -38.000,   1
152290,'1 ',0,   7,  18,     0.000,     0.000,     0.000,     0.000,    19.952,   -19.952,   1
152297,'1 ',1,   7,  18,     0.000,     0.000,     0.000,     0.000,    18.000,   -18.000,   1
152298,'1 ',1,   7,  18,     0.000,     0.000,     0.000,     0.000,    20.275,   -20.275,   1
152299,'1 ',0,   7,  18,     0.000,     0.000,     0.000,     0.000,    19.952,   -19.952,   1
152326,'1 ',1,   7,  18,     0.000,     0.000,     0.000,     0.000,    18.000,   -18.000,   1
152329,'1 ',1,   7,  18,     0.000,     0.000,     0.000,     0.000,    18.000,   -18.000,   1
152334,'1 ',1,   7,  18,     0.000,     0.000,     0.000,     0.000,     9.193,    -8.172,   1
152336,'1 ',1,   7,  18,     0.000,     0.000,     0.000,     0.000,     9.740,    -8.658,   1
152339,'1 ',1,   7,  18,     0.000,     0.000,     0.000,     0.000,    20.406,   -20.406,   1
152340,'1 ',1,   7,  18,     0.000,     0.000,     0.000,     0.000,    20.826,   -20.826,   1
152353,'1 ',1,   7,  18,     0.000,     0.000,     0.000,     0.000,     9.235,    -8.209,   1
152355,'1 ',1,   7,  18,     0.000,     0.000,     0.000,     0.000,   402.629,  -109.604,   1
152356,'1 ',1,   7,  18,     0.000,     0.000,     0.000,     0.000,     9.235,    -8.209,   1
152358,'1 ',1,   7,  18,     0.000,     0.000,     0.000,     0.000,    73.780,   -25.296,   1
152359,'1 ',1,   7,  18,     0.000,     0.000,     0.000,     0.000,     9.773,    -8.687,   1
152405,'1 ',1,   7,  18,     0.000,     0.000,     0.000,     0.000,     9.000,    -8.000,   1
152408,'1 ',1,   7,  18,     0.000,     0.000,     0.000,     0.000,     9.825,    -8.734,   1
152439,'1 ',1,   7,  18,     0.000,     0.000,     0.000,     0.000,    18.000,   -18.000,   1
152441,'1 ',0,   7,  18,     0.000,     0.000,     0.000,     0.000,    18.000,   -18.000,   1
152442,'1 ',1,   7,  18,     0.000,     0.000,     0.000,     0.000,    19.889,   -19.889,   1
152443,'1 ',1,   7,  18,     0.000,     0.000,     0.000,     0.000,    19.889,   -19.889,   1
152453,'1 ',1,   7,  18,     0.000,     0.000,     0.000,     0.000,    18.000,   -18.000,   1
152454,'1 ',1,   7,  18,     0.000,     0.000,     0.000,     0.000,    18.000,   -18.000,   1
152531,'1 ',1,   7,  18,     0.000,     0.000,     0.000,     0.000,     9.000,    -8.000,   1
152533,'1 ',1,   7,  18,     0.000,     0.000,     0.000,     0.000,     9.000,    -9.000,   1
152535,'1 ',1,   7,  18,     0.000,     0.000,     0.000,     0.000,     9.000,    -8.000,   1
152537,'1 ',1,   7,  18,     0.000,     0.000,     0.000,     0.000,     9.000,    -8.000,   1
152558,'1 ',1,   7,  18,     0.000,     0.000,     0.000,     0.000,    38.772,   -38.772,   1
152560,'1 ',1,   7,  18,     0.000,     0.000,     0.000,     0.000,    38.772,   -38.772,   1
152561,'1 ',1,   7,  18,     0.000,     0.000,     0.000,     0.000,    38.772,   -38.772,   1
152562,'1 ',1,   7,  18,     0.000,     0.000,     0.000,     0.000,    38.772,   -38.772,   1
152575,'1 ',0,   7,  18,     0.000,     0.000,     0.000,     0.000,    10.061,    -8.943,   1
152578,'1 ',0,   7,  18,     0.000,     0.000,     0.000,     0.000,    10.061,    -8.943,   1
152579,'1 ',1,   7,  18,     0.000,     0.000,     0.000,     0.000,    18.000,   -18.000,   1
152580,'1 ',1,   7,  18,     0.000,     0.000,     0.000,     0.000,    19.970,   -19.970,   1
152601,'1 ',0,   7,  18,     0.000,     0.000,     0.000,     0.000,    10.460,    -8.136,   1
152603,'1 ',1,   7,  18,     0.000,     0.000,     0.000,     0.000,    10.527,    -8.187,   1
152605,'1 ',1,   7,  18,     0.000,     0.000,     0.000,     0.000,     9.000,    -8.000,   1
152606,'1 ',1,   7,  18,     0.000,     0.000,     0.000,     0.000,     9.000,    -8.000,   1
152607,'1 ',1,   7,  18,     0.000,     0.000,     0.000,     0.000,     9.976,    -8.867,   1
152642,'1 ',0,   7,  18,     0.000,     0.000,     0.000,     0.000,     9.888,    -8.652,   1
152644,'1 ',0,   7,  18,     0.000,     0.000,     0.000,     0.000,    16.889,   -15.683,   1
152645,'1 ',1,   7,  18,     0.000,     0.000,     0.000,     0.000,    14.942,   -13.875,   1
152646,'1 ',1,   7,  18,     0.000,     0.000,     0.000,     0.000,    14.939,   -13.872,   1
152648,'1 ',0,   7,  18,     0.000,     0.000,     0.000,     0.000,    16.889,   -15.683,   1
152660,'1 ',1,   7,  18,     0.000,     0.000,     0.000,     0.000,    18.000,   -18.000,   1
152662,'1 ',0,   7,  18,     0.000,     0.000,     0.000,     0.000,    18.565,   -18.565,   1
152743,'1 ',1,   7,  18,     0.000,     0.000,     0.000,     0.000,     5.000,    -3.500,   1
152745,'1 ',1,   7,  18,     0.000,     0.000,     0.000,     0.000,     5.000,    -3.500,   1
152746,'1 ',1,   7,  18,     0.000,     0.000,     0.000,     0.000,     9.501,    -8.445,   1
152748,'1 ',0,   7,  18,     0.000,     0.000,     0.000,     0.000,     9.954,    -8.848,   1
152779,'1 ',0,   7,  18,     0.000,     0.000,     0.000,     0.000,    22.534,   -22.534,   1
152781,'1 ',0,   7,  18,     0.000,     0.000,     0.000,     0.000,    22.534,   -22.534,   1
152837,'1 ',1,   7,  18,     0.000,     0.000,     0.000,     0.000,    18.000,   -16.000,   1
152839,'1 ',0,   7,  18,     0.000,     0.000,     0.000,     0.000,    19.622,   -18.532,   1
152840,'1 ',1,   7,  18,     0.000,     0.000,     0.000,     0.000,    18.000,   -16.000,   1
152841,'1 ',0,   7,  18,     0.000,     0.000,     0.000,     0.000,    19.622,   -17.442,   1
152874,'1 ',1,   7,  18,     0.000,     0.000,     0.000,     0.000,    22.000,   -20.000,   1
152876,'1 ',1,   7,  18,     0.000,     0.000,     0.000,     0.000,    22.000,   -20.000,   1
152877,'1 ',1,   7,  18,     0.000,     0.000,     0.000,     0.000,    36.000,   -36.000,   1
152878,'1 ',1,   7,  18,     0.000,     0.000,     0.000,     0.000,    36.000,   -36.000,   1
152932,'1 ',1,   7,  18,     0.000,     0.000,     0.000,     0.000,    14.303,   -11.238,   1
152935,'1 ',0,   7,  18,     0.000,     0.000,     0.000,     0.000,    14.963,   -11.757,   1
152937,'1 ',1,   7,  18,     0.000,     0.000,     0.000,     0.000,    18.000,   -18.000,   1
152938,'1 ',1,   7,  18,     0.000,     0.000,     0.000,     0.000,    19.501,   -19.501,   1
152950,'1 ',1,   7,  18,     0.000,     0.000,     0.000,     0.000,    14.000,   -12.000,   1
152952,'1 ',1,   7,  18,     0.000,     0.000,     0.000,     0.000,    14.000,   -12.000,   1
152965,'1 ',0,   7,  18,     0.000,     0.000,     0.000,     0.000,    10.128,   -10.128,   1
152967,'1 ',1,   7,  18,     0.000,     0.000,     0.000,     0.000,    20.000,   -20.000,   1
152968,'1 ',1,   7,  18,     0.000,     0.000,     0.000,     0.000,    20.000,   -20.000,   1
152979,'1 ',0,   7,  18,     0.000,     0.000,     0.000,     0.000,    19.221,   -19.221,   1
152981,'1 ',1,   7,  18,     0.000,     0.000,     0.000,     0.000,    18.000,   -18.000,   1
152982,'1 ',1,   7,  18,     0.000,     0.000,     0.000,     0.000,    18.000,   -18.000,   1
152983,'1 ',1,   7,  18,     0.000,     0.000,     0.000,     0.000,    19.517,   -19.517,   1
152988,'1 ',1,   7,  18,     0.000,     0.000,     0.000,     0.000,    18.000,   -18.000,   1
152989,'1 ',0,   7,  18,     0.000,     0.000,     0.000,     0.000,    18.000,   -18.000,   1
152997,'1 ',1,   7,  18,     0.000,     0.000,     0.000,     0.000,    15.000,   -14.000,   1
152999,'1 ',0,   7,  18,     0.000,     0.000,     0.000,     0.000,    16.140,   -15.064,   1
153045,'1 ',0,   7,  18,     0.000,     0.000,     0.000,     0.000,    14.237,   -13.141,   1
153048,'1 ',0,   7,  18,     0.000,     0.000,     0.000,     0.000,     4.149,    -3.112,   1
153050,'1 ',0,   7,  18,     0.000,     0.000,     0.000,     0.000,     4.149,    -3.112,   1
153051,'1 ',0,   7,  18,     0.000,     0.000,     0.000,     0.000,     4.149,    -3.112,   1
153052,'1 ',0,   7,  18,     0.000,     0.000,     0.000,     0.000,     4.149,    -3.112,   1
153097,'1 ',1,   7,  18,     0.000,     0.000,     0.000,     0.000,     9.000,    -8.000,   1
153099,'1 ',0,   7,  18,     0.000,     0.000,     0.000,     0.000,     9.000,    -8.000,   1
153100,'1 ',1,   7,  18,     0.000,     0.000,     0.000,     0.000,    20.000,   -20.000,   1
153101,'1 ',1,   7,  18,     0.000,     0.000,     0.000,     0.000,    20.000,   -20.000,   1
153144,'1 ',1,   7,  18,     0.000,     0.000,     0.000,     0.000,    20.624,   -14.437,   1
153145,'1 ',0,   7,  18,     0.000,     0.000,     0.000,     0.000,    23.331,   -16.332,   1
153146,'1 ',1,   7,  18,     0.000,     0.000,     0.000,     0.000,    38.000,   -38.000,   1
153148,'1 ',0,   7,  18,     0.000,     0.000,     0.000,     0.000,    40.921,   -40.921,   1
153160,'1 ',1,   7,  18,     0.000,     0.000,     0.000,     0.000,    18.000,   -18.000,   1
153162,'1 ',1,   7,  18,     0.000,     0.000,     0.000,     0.000,    18.000,   -18.000,   1
153163,'1 ',1,   7,  18,     0.000,     0.000,     0.000,     0.000,    36.000,   -36.000,   1
153164,'1 ',1,   7,  18,     0.000,     0.000,     0.000,     0.000,    36.000,   -36.000,   1
153235,'1 ',1,   7,  18,     0.000,     0.000,     0.000,     0.000,     3.800,    -3.000,   1
153236,'1 ',1,   7,  18,     0.000,     0.000,     0.000,     0.000,     4.000,    -3.500,   1
153240,'1 ',1,   7,  18,     0.000,     0.000,     0.000,     0.000,    15.597,   -14.557,   1
153242,'1 ',1,   7,  18,     0.000,     0.000,     0.000,     0.000,   298.710,  -149.355,   1
153243,'1 ',1,   7,  18,     0.000,     0.000,     0.000,     0.000,    15.597,   -14.557,   1
153245,'1 ',1,   7,  18,     0.000,     0.000,     0.000,     0.000,    15.636,   -14.593,   1
153280,'1 ',1,   7,  18,     0.000,     0.000,     0.000,     0.000,    20.000,   -20.000,   1
153282,'1 ',1,   7,  18,     0.000,     0.000,     0.000,     0.000,    21.989,   -21.989,   1
153311,'1 ',1,   7,  18,     0.000,     0.000,     0.000,     0.000,   392.696,  -183.258,   1
153312,'1 ',1,   7,  18,     0.000,     0.000,     0.000,     0.000,    17.863,   -14.290,   1
153316,'1 ',1,   7,  18,     0.000,     0.000,     0.000,     0.000,    17.837,   -14.269,   1
153319,'1 ',0,   7,  18,     0.000,     0.000,     0.000,     0.000,    17.180,   -13.744,   1
153321,'1 ',0,   7,  18,     0.000,     0.000,     0.000,     0.000,    17.180,   -13.744,   1
153371,'1 ',0,   7,  18,     0.000,     0.000,     0.000,     0.000,     8.909,    -7.637,   1
153373,'1 ',0,   7,  18,     0.000,     0.000,     0.000,     0.000,     8.909,    -6.364,   1
153374,'1 ',1,   7,  18,     0.000,     0.000,     0.000,     0.000,    12.137,   -10.923,   1
153376,'1 ',0,   7,  18,     0.000,     0.000,     0.000,     0.000,    12.728,   -11.455,   1
153377,'1 ',1,   7,  18,     0.000,     0.000,     0.000,     0.000,    11.159,   -10.043,   1
153391,'1 ',1,   7,  18,     0.000,     0.000,     0.000,     0.000,    13.000,   -12.000,   1
153393,'1 ',1,   7,  18,     0.000,     0.000,     0.000,     0.000,    12.225,   -11.284,   1
153447,'1 ',1,   7,  18,     0.000,     0.000,     0.000,     0.000,     3.504,    -3.004,   1
153448,'1 ',0,   7,  18,     0.000,     0.000,     0.000,     0.000,     3.687,    -3.160,   1
153515,'1 ',1,   7,  18,     0.000,     0.000,     0.000,     0.000,     9.000,    -8.000,   1
153517,'1 ',1,   7,  18,     0.000,     0.000,     0.000,     0.000,     9.000,    -8.000,   1
153518,'1 ',1,   7,  18,     0.000,     0.000,     0.000,     0.000,     9.000,    -8.000,   1
153519,'1 ',1,   7,  18,     0.000,     0.000,     0.000,     0.000,     9.641,    -8.570,   1
153521,'1 ',1,   7,  18,     0.000,     0.000,     0.000,     0.000,    20.406,   -20.406,   1
153523,'1 ',1,   7,  18,     0.000,     0.000,     0.000,     0.000,    20.406,   -20.406,   1
153559,'1 ',0,   7,  18,     0.000,     0.000,     0.000,     0.000,     9.354,    -7.275,   1
153562,'1 ',0,   7,  18,     0.000,     0.000,     0.000,     0.000,     9.354,    -7.275,   1
153564,'1 ',1,   7,  18,     0.000,     0.000,     0.000,     0.000,    10.000,    -9.000,   1
153565,'1 ',0,   7,  18,     0.000,     0.000,     0.000,     0.000,    10.393,    -9.354,   1
153567,'1 ',1,   7,  18,     0.000,     0.000,     0.000,     0.000,     4.000,    -3.500,   1
153569,'1 ',0,   7,  18,     0.000,     0.000,     0.000,     0.000,     7.000,    -6.000,   1
153573,'1 ',1,   7,  18,     0.000,     0.000,    65.372,   193.100,    73.767,   145.264,   1
153574,'1 ',1,   7,  18,     0.000,     0.000,     0.000,     0.000,     9.614,    -8.546,   1
153577,'1 ',0,   7,  18,     0.000,     0.000,     0.000,     0.000,    10.112,    -8.989,   1
153579,'1 ',1,   7,  18,     0.000,     0.000,     0.000,     0.000,    18.000,   -18.000,   1
153580,'1 ',1,   7,  18,     0.000,     0.000,     0.000,     0.000,    18.000,   -18.000,   1
153624,'1 ',1,   7,  18,     0.000,     0.000,     0.000,     0.000,    10.000,    -9.000,   1
153626,'1 ',0,   7,  18,     0.000,     0.000,     0.000,     0.000,    10.951,    -9.856,   1
153700,'1 ',1,   7,  18,     0.000,     0.000,     0.000,     0.000,    20.000,   -18.000,   1
153702,'1 ',1,   7,  18,     0.000,     0.000,     0.000,     0.000,    20.000,   -18.000,   1
153705,'1 ',1,   7,  18,     0.000,     0.000,     0.000,     0.000,    20.406,   -20.406,   1
153706,'1 ',1,   7,  18,     0.000,     0.000,     0.000,     0.000,    20.406,   -20.406,   1
153716,'1 ',1,   7,  18,     0.000,     0.000,     0.000,     0.000,    40.812,   -40.812,   1
153718,'1 ',1,   7,  18,     0.000,     0.000,     0.000,     0.000,    40.812,   -40.812,   1
153719,'1 ',1,   7,  18,     0.000,     0.000,     0.000,     0.000,    45.914,   -45.914,   1
153720,'1 ',1,   7,  18,     0.000,     0.000,     0.000,     0.000,    45.914,   -45.914,   1
153761,'1 ',1,   7,  18,     0.000,     0.000,     0.000,     0.000,    18.000,   -18.000,   1
153762,'1 ',0,   7,  18,     0.000,     0.000,     0.000,     0.000,    20.123,   -20.123,   1
153763,'1 ',0,   7,  18,     0.000,     0.000,     0.000,     0.000,    20.316,   -20.316,   1
153764,'1 ',0,   7,  18,     0.000,     0.000,     0.000,     0.000,    20.316,   -20.316,   1
153765,'1 ',1,   7,  18,     0.000,     0.000,     0.000,     0.000,     9.575,    -8.511,   1
153766,'1 ',1,   7,  18,     0.000,     0.000,     0.000,     0.000,    10.997,    -9.775,   1
153767,'1 ',0,   7,  18,     0.000,     0.000,     0.000,     0.000,    10.826,    -9.623,   1
153855,'1 ',1,   7,  18,     0.000,     0.000,     0.000,     0.000,    38.000,   -38.000,   1
153856,'1 ',0,   7,  18,     0.000,     0.000,     0.000,     0.000,    38.829,   -38.829,   1
154000,'1 ',1,   7,  34,     0.000,     0.000,    73.303,   206.260,    83.967,   157.510,   1
154001,'1 ',1,   7,  34,     0.000,     0.000,    25.143,    69.395,    27.597,    50.778,   1
154003,'1 ',1,   7,  34,     0.000,     0.000,    70.419,   209.780,    80.997,   160.861,   1
154004,'1 ',1,   7,  34,     0.000,     0.000,    89.101,   252.453,   105.185,   198.684,   1
154005,'1 ',1,   7,  34,     0.000,     0.000,    30.013,    84.037,    32.129,    59.974,   1
154006,'1 ',1,   7,  34,     0.000,     0.000,    21.053,    63.158,    21.642,    43.285,   1
...
0 / END OF LOAD DATA, BEGIN FIXED SHUNT DATA
127100,'1 ',1,     0.000,  -109.339
129133,'1 ',1,     0.000,  -109.339
151801,'1 ',1,     0.000,    16.050
151808,'1 ',1,     0.000,    37.287
151815,'1 ',1,     0.000,    19.421
151836,'1 ',1,     0.000,    12.429
151840,'1 ',1,     0.000,    12.947
151840,'2 ',1,     0.000,    12.947
151844,'1 ',1,     0.000,    19.421
151844,'2 ',1,     0.000,    12.947
151848,'1 ',1,     0.000,    10.700
151848,'2 ',1,     0.000,    10.700
151848,'3 ',1,     0.000,    10.700
151848,'4 ',1,     0.000,    10.700
151848,'5 ',1,     0.000,    10.700
151866,'1 ',0,     0.000,    67.893
151866,'2 ',1,     0.000,    72.646
151866,'3 ',0,     0.000,   -72.599
151866,'4 ',0,     0.000,   -72.599
151883,'1 ',1,     0.000,    15.536
151883,'2 ',1,     0.000,    15.536
151887,'1 ',1,     0.000,    31.073
151887,'2 ',1,     0.000,    31.073
151891,'1 ',1,     0.000,    26.412
151895,'1 ',1,     0.000,    24.858
151895,'2 ',1,     0.000,    12.429
151898,'1 ',0,     0.000,   -74.719
151898,'2 ',1,     0.000,    68.669
151899,'1 ',1,     0.000,    68.669
151906,'1 ',1,     0.000,  -136.509
151913,'1 ',1,     0.000,    10.700
151913,'2 ',1,     0.000,    10.700
151913,'3 ',1,     0.000,    10.700
151917,'1 ',1,     0.000,    12.947
151917,'2 ',1,     0.000,    12.947
151921,'1 ',1,     0.000,    12.429
151939,'1 ',1,     0.000,    12.947
151939,'2 ',1,     0.000,    12.947
151943,'1 ',1,     0.000,    10.700
151943,'2 ',1,     0.000,    10.700
151947,'1 ',1,     0.000,    12.947
151958,'1 ',1,     0.000,    10.700
151958,'2 ',1,     0.000,    10.700
151958,'3 ',1,     0.000,    10.700
151961,'1 ',1,     0.000,    19.421
151966,'1 ',0,     0.000,   -72.599
151966,'2 ',1,     0.000,    77.683
151966,'3 ',0,     0.000,    72.601
151974,'1 ',1,     0.000,     8.807
151981,'1 ',1,     0.000,    15.559
151986,'1 ',1,     0.000,    16.050
151986,'2 ',1,     0.000,    16.050
151987,'1 ',1,     0.000,    17.615
151994,'1 ',0,     0.000,   -74.719
151994,'2 ',1,     0.000,    72.646
151995,'1 ',0,     0.000,   -74.719
151995,'2 ',0,     0.000,    67.893
152006,'1 ',1,     0.000,    23.487
152026,'1 ',1,     0.000,    50.000
152027,'1 ',1,     0.000,    11.235
152027,'2 ',1,     0.000,    11.235
152034,'1 ',1,     0.000,    16.050
152047,'1 ',1,     0.000,    12.947
152052,'1 ',1,     0.000,    24.858
152053,'1 ',1,     0.000,    19.587
152064,'1 ',1,     0.000,    10.700
152064,'2 ',1,     0.000,    10.700
152089,'1 ',1,     0.000,    11.743
152096,'1 ',1,     0.000,    16.050
152096,'2 ',1,     0.000,    16.050
152100,'1 ',1,     0.000,    12.949
152100,'2 ',1,     0.000,    12.949
152104,'1 ',1,     0.000,    21.366
152104,'2 ',1,     0.000,    10.700
152112,'1 ',1,     0.000,    25.894
152117,'1 ',1,     0.000,    24.858
152124,'1 ',1,     0.000,    10.700
152124,'2 ',1,     0.000,    10.700
152129,'1 ',1,     0.000,    19.421
152129,'2 ',1,     0.000,    19.421
152129,'3 ',1,     0.000,    19.421
152129,'4 ',1,     0.000,    19.421
152133,'1 ',1,     0.000,    12.429
152133,'2 ',1,     0.000,    12.429
152162,'1 ',1,     0.000,    38.841
152166,'1 ',1,     0.000,    19.421
152166,'2 ',1,     0.000,    19.421
152169,'1 ',1,     0.000,    12.958
152170,'1 ',1,     0.000,     8.025
152177,'1 ',1,     0.000,    12.840
152177,'2 ',1,     0.000,    12.840
152177,'3 ',1,     0.000,    12.840
152205,'1 ',1,     0.000,    77.683
152205,'2 ',1,     0.000,    77.683
152210,'1 ',1,     0.000,    24.858
152210,'2 ',1,     0.000,    24.858
152221,'1 ',1,     0.000,    24.858
152221,'2 ',1,     0.000,    24.858
152221,'3 ',1,     0.000,    12.840
152221,'4 ',1,     0.000,    12.840
152233,'1 ',0,     0.000,  -108.900
152258,'1 ',1,     0.000,  -109.339
152261,'1 ',1,     0.000,    25.894
152266,'1 ',1,     0.000,    12.947
152266,'2 ',1,     0.000,    12.947
152266,'3 ',1,     0.000,    19.421
152270,'1 ',1,     0.000,    25.915
152270,'2 ',1,     0.000,    25.915
152307,'1 ',1,     0.000,    19.421
152308,'1 ',1,     0.000,     8.848
152314,'1 ',1,     0.000,    12.947
152317,'1 ',0,     0.000,  -108.900
152318,'1 ',1,     0.000,    77.683
152318,'2 ',1,     0.000,    77.683
152318,'3 ',0,     0.000,   -74.719
152347,'1 ',1,     0.000,    21.400
152364,'1 ',1,     0.000,    25.894
152364,'2 ',1,     0.000,    25.894
152368,'1 ',1,     0.000,    10.272
152374,'1 ',1,     0.000,    12.947
152379,'1 ',1,     0.000,    24.858
152382,'1 ',1,     0.000,    19.421
152382,'2 ',1,     0.000,    19.421
152386,'1 ',1,     0.000,    18.644
152386,'2 ',1,     0.000,    18.644
152386,'3 ',1,     0.000,    18.644
152386,'4 ',1,     0.000,    18.644
152391,'1 ',1,     0.000,    24.858
152391,'2 ',1,     0.000,    24.858
152395,'1 ',1,     0.000,    24.858
152395,'2 ',1,     0.000,    24.858
152413,'1 ',1,     0.000,    12.840
152413,'2 ',1,     0.000,    12.840
152417,'1 ',1,     0.000,    38.841
152426,'1 ',0,     0.000,   -74.719
152426,'2 ',0,     0.000,   -74.719
152426,'3 ',0,     0.000,    72.601
152469,'1 ',1,     0.000,    24.858
152472,'1 ',0,     0.000,   -74.719
152472,'2 ',0,     0.000,    67.893
152473,'1 ',0,     0.000,   -74.719
152473,'2 ',0,     0.000,   -74.719
152473,'3 ',1,     0.000,    72.646
152473,'4 ',0,     0.000,    67.893
152480,'1 ',1,     0.000,  -136.509
152483,'1 ',1,     0.000,    10.700
152483,'2 ',1,     0.000,    10.700
152487,'1 ',0,     0.000,    67.893
152487,'2 ',0,     0.000,   -74.719
152487,'3 ',0,     0.000,   -74.719
152487,'4 ',0,     0.000,   -74.719
152488,'1 ',0,     0.000,   -74.719
152488,'2 ',0,     0.000,   -74.719
152488,'3 ',0,     0.000,   -74.719
152500,'1 ',0,     0.000,   -74.719
152500,'2 ',1,     0.000,    72.646
152500,'3 ',1,     0.000,    72.646
152501,'1 ',0,     0.000,   -74.719
152501,'2 ',0,     0.000,   -74.719
152501,'3 ',1,     0.000,    72.646
152502,'1 ',1,     0.000,    72.646
152508,'1 ',1,     0.000,   142.000
152509,'1 ',1,     0.000,    11.979
152516,'1 ',1,     0.000,    19.421
152516,'2 ',1,     0.000,    19.421
152520,'1 ',1,     0.000,    19.421
152520,'2 ',1,     0.000,    19.421
152524,'1 ',1,     0.000,    12.947
152524,'2 ',1,     0.000,    12.947
152524,'3 ',1,     0.000,    12.947
152542,'1 ',1,     0.000,    10.700
152542,'2 ',1,     0.000,    10.700
152546,'1 ',1,     0.000,    12.947
152549,'1 ',1,     0.000,    12.958
152549,'2 ',1,     0.000,    12.958
152585,'1 ',0,     0.000,   -74.719
152585,'2 ',0,     0.000,   -74.719
152586,'1 ',0,     0.000,   -74.719
152586,'2 ',0,     0.000,   -72.599
152593,'1 ',1,     0.000,  -109.339
152608,'1 ',1,     0.000,    16.050
152613,'1 ',1,     0.000,    10.700
152613,'2 ',1,     0.000,    10.700
152618,'1 ',1,     0.000,    25.894
152622,'1 ',0,     0.000,   -72.599
152622,'2 ',1,     0.000,    77.683
152622,'3 ',0,     0.000,    72.601
152623,'1 ',0,     0.000,   -72.599
152623,'2 ',0,     0.000,    72.601
152623,'3 ',1,     0.000,    77.683
152630,'1 ',1,     0.000,    16.050
152630,'2 ',1,     0.000,    16.050
152630,'3 ',1,     0.000,    16.050
152651,'1 ',1,     0.000,    12.947
152652,'1 ',1,     0.000,    21.400
152658,'1 ',1,     0.000,    12.947
152668,'1 ',0,     0.000,   -74.719
152668,'2 ',0,     0.000,   -74.719
152668,'3 ',1,     0.000,    77.683
152669,'1 ',0,     0.000,   -74.719
...
0 / END OF FIXED SHUNT DATA, BEGIN GENERATOR DATA
127100,'1 ',  2041.318,   364.642,  9999.000, -9999.000,1.00000,     0, 10000.000, 0.00000E+0, 1.70000E-1, 0.00000E+0, 0.00000E+0,1.00000,1,  100.0,  9999.000, -9999.000,   1,1.0000
129133,'1 ',  2000.000,   241.475,  9999.000, -9999.000,1.00000,     0, 10000.000, 0.00000E+0, 1.70000E-1, 0.00000E+0, 0.00000E+0,1.00000,1,  100.0,  9999.000, -9999.000,   1,1.0000
151809,'1 ',   660.000,   300.000,   320.000,     0.000,1.00000,     0,   733.300, 0.00000E+0, 2.05000E-1, 0.00000E+0, 0.00000E+0,1.00000,0,  100.0,   660.000,   360.000,   1,1.0000
151818,'1 ',   145.000,   127.617,    84.000,     0.000,1.00000,     0,   170.588, 0.00000E+0, 1.40000E-1, 0.00000E+0, 0.00000E+0,1.00000,0,  100.0,   145.000,    80.000,   1,1.0000
151820,'1 ',   145.000,    55.000,    84.000,     0.000,1.00000,     0,   170.588, 0.00000E+0, 1.40000E-1, 0.00000E+0, 0.00000E+0,1.00000,0,  100.0,   145.000,    80.000,   1,1.0000
151822,'1 ',   300.000,   127.204,   186.000,     0.000,1.00000,     0,   352.940, 0.00000E+0, 1.60000E-1, 0.00000E+0, 0.00000E+0,1.00000,1,  100.0,   300.000,   150.000,   1,1.0000
151823,'1 ',   300.000,   160.475,   186.000,     0.000,1.00000,     0,   352.940, 0.00000E+0, 1.60000E-1, 0.00000E+0, 0.00000E+0,1.00000,0,  100.0,   300.000,   150.000,   1,1.0000
151925,'1 ',   155.000,    95.370,    84.000,     0.000,0.99000,     0,   182.353, 0.00000E+0, 1.31000E-1, 0.00000E+0, 0.00000E+0,1.00000,0,  100.0,   155.000,    90.000,   1,1.0000
151932,'1 ',   125.000,    70.749,    77.000,     0.000,1.00000,     0,   147.000, 0.00000E+0, 1.80000E-1, 0.00000E+0, 0.00000E+0,1.00000,0,  100.0,   125.000,    70.000,   1,1.0000
151933,'1 ',   125.000,    77.000,    77.000,     0.000,1.00000,     0,   147.000, 0.00000E+0, 1.80000E-1, 0.00000E+0, 0.00000E+0,1.00000,1,  100.0,   125.000,    70.000,   1,1.0000
151935,'1 ',   125.000,    77.000,    77.000,     0.000,1.00000,     0,   147.000, 0.00000E+0, 1.80000E-1, 0.00000E+0, 0.00000E+0,1.00000,0,  100.0,   125.000,    70.000,   1,1.0000
151936,'1 ',   125.000,    60.000, 99900.000,-99900.000,1.00000,     0,   147.000, 0.00000E+0, 1.80000E-1, 0.00000E+0, 0.00000E+0,1.00000,0,  100.0,   125.000,    70.000,   1,1.0000
152017,'1 ',   150.000,    67.000,    67.000,    67.000,0.99000,     0,   176.470, 0.00000E+0, 1.91500E-1, 0.00000E+0, 0.00000E+0,1.00000,0,  100.0,   150.000,   100.000,   1,1.0000
152019,'1 ',   150.000,    66.000,    66.000,    66.000,0.99000,     0,   176.470, 0.00000E+0, 1.91500E-1, 0.00000E+0, 0.00000E+0,1.00000,0,  100.0,   150.000,   100.000,   1,1.0000
152020,'1 ',   220.000,    90.000,    90.000,    90.000,0.99000,     0,   258.824, 0.00000E+0, 1.20000E-1, 0.00000E+0, 0.00000E+0,1.00000,1,  100.0,   220.000,   140.000,   1,1.0000
152021,'1 ',   220.000,    90.000,    90.000,    90.000,0.99000,     0,   258.824, 0.00000E+0, 1.20000E-1, 0.00000E+0, 0.00000E+0,1.00000,1,  100.0,   220.000,   140.000,   1,1.0000
152074,'1 ',   650.000,   197.111,   290.000,     0.000,1.00000,     0,   722.222, 0.00000E+0, 2.05000E-1, 0.00000E+0, 0.00000E+0,1.00000,1,  100.0,   650.000,   300.000,   1,1.0000
152076,'1 ',   650.000,   197.111,   290.000,     0.000,1.00000,     0,   722.222, 0.00000E+0, 2.05000E-1, 0.00000E+0, 0.00000E+0,1.00000,1,  100.0,   650.000,   300.000,   1,1.0000
152191,'1 ',   125.000,    77.000,    77.000,     0.000,1.00000,     0,   147.000, 0.00000E+0, 1.80000E-1, 0.00000E+0, 0.00000E+0,1.00000,1,  100.0,   125.000,    85.000,   1,1.0000
152194,'1 ',   125.000,    77.000,    77.000,     0.000,1.00000,     0,   147.000, 0.00000E+0, 1.80000E-1, 0.00000E+0, 0.00000E+0,1.00000,1,  100.0,   125.000,    85.000,   1,1.0000
152196,'1 ',   300.000,   136.851,   186.000,     0.000,1.00000,     0,   353.000, 0.00000E+0, 1.60000E-1, 0.00000E+0, 0.00000E+0,1.00000,1,  100.0,   300.000,   180.000,   1,1.0000
152197,'1 ',   300.000,   115.636,   186.000,     0.000,1.00000,     0,   353.000, 0.00000E+0, 1.60000E-1, 0.00000E+0, 0.00000E+0,1.00000,0,  100.0,   300.000,   180.000,   1,1.0000
152198,'1 ',   330.000,   126.400,   186.000,     0.000,1.00000,     0,   388.235, 0.00000E+0, 1.69300E-1, 0.00000E+0, 0.00000E+0,1.00000,1,  100.0,   330.000,   165.000,   1,1.0000
152200,'1 ',   330.000,   110.690,   186.000,     0.000,1.00000,     0,   388.235, 0.00000E+0, 1.69300E-1, 0.00000E+0, 0.00000E+0,1.00000,0,  100.0,   330.000,   165.000,   1,1.0000
152230,'1 ',   330.000,   112.264,   186.000,     0.000,1.00000,     0,   388.235, 0.00000E+0, 1.62500E-1, 0.00000E+0, 0.00000E+0,1.00000,0,  100.0,   330.000,   182.000,   1,1.0000
152232,'1 ',   320.000,   111.224,   186.000,     0.000,1.00000,     0,   376.471, 0.00000E+0, 1.62500E-1, 0.00000E+0, 0.00000E+0,1.00000,0,  100.0,   320.000,   165.000,   1,1.0000
152234,'1 ',   300.000,    97.115,   186.000,     0.000,1.00000,     0,   353.000, 0.00000E+0, 1.62500E-1, 0.00000E+0, 0.00000E+0,1.00000,1,  100.0,   300.000,   165.000,   1,1.0000
152235,'1 ',   320.000,    75.238,   186.000,     0.000,1.00000,     0,   376.471, 0.00000E+0, 1.62500E-1, 0.00000E+0, 0.00000E+0,1.00000,1,  100.0,   320.000,   165.000,   1,1.0000
152242,'1 ',   700.000,   172.018,   320.000,     0.000,1.00000,     0,   777.778, 0.00000E+0, 2.05000E-1, 0.00000E+0, 0.00000E+0,1.00000,1,  100.0,   700.000,   400.000,   1,1.0000
152244,'1 ',   700.000,   140.377,   320.000,     0.000,1.00000,     0,   777.778, 0.00000E+0, 2.05000E-1, 0.00000E+0, 0.00000E+0,1.00000,0,  100.0,   700.000,   400.000,   1,1.0000
152251,'1 ',   155.000,    79.436,    84.000,     0.000,0.99000,     0,   182.353, 0.00000E+0, 1.93100E-1, 0.00000E+0, 0.00000E+0,1.00000,1,  100.0,   155.000,    90.000,   1,1.0000
152253,'1 ',   155.000,    84.000,    84.000,     0.000,1.00000,     0,   182.353, 0.00000E+0, 1.93100E-1, 0.00000E+0, 0.00000E+0,1.00000,1,  100.0,   155.000,    90.000,   1,1.0000
152254,'1 ',   155.000,    84.000,    84.000,     0.000,0.99000,     0,   182.353, 0.00000E+0, 1.93100E-1, 0.00000E+0, 0.00000E+0,1.00000,0,  100.0,   155.000,    90.000,   1,1.0000
152281,'1 ',   225.000,    93.147,   124.000,     0.000,1.00000,     0,   264.700, 0.00000E+0, 1.79000E-1, 0.00000E+0, 0.00000E+0,1.00000,1,  100.0,   225.000,   124.000,   1,1.0000
152282,'1 ',   225.000,    93.147,   124.000,     0.000,1.00000,     0,   264.700, 0.00000E+0, 1.79000E-1, 0.00000E+0, 0.00000E+0,1.00000,1,  100.0,   225.000,   124.000,   1,1.0000
152283,'1 ',   670.000,   178.864,   320.000,     0.000,1.00000,     0,   744.444, 0.00000E+0, 2.05000E-1, 0.00000E+0, 0.00000E+0,1.00000,1,  100.0,   670.000,   330.000,   1,1.0000
152286,'1 ',   670.000,   180.891,   320.000,     0.000,1.00000,     0,   744.444, 0.00000E+0, 2.05000E-1, 0.00000E+0, 0.00000E+0,1.00000,1,  100.0,   670.000,   360.000,   1,1.0000
152290,'1 ',   350.000,   140.000,   186.000,     0.000,1.00000,     0,   411.765, 0.00000E+0, 1.66000E-1, 0.00000E+0, 0.00000E+0,1.00000,0,  100.0,   350.000,   180.000,   1,1.0000
152297,'1 ',   330.000,   168.462,   186.000,     0.000,1.00000,     0,   388.235, 0.00000E+0, 1.91500E-1, 0.00000E+0, 0.00000E+0,1.00000,1,  100.0,   330.000,   182.000,   1,1.0000
152298,'1 ',   330.000,   186.000,   186.000,     0.000,1.00000,     0,   388.235, 0.00000E+0, 1.91500E-1, 0.00000E+0, 0.00000E+0,1.00000,0,  100.0,   330.000,   182.000,   1,1.0000
152299,'1 ',   350.000,   140.000,   186.000,     0.000,1.00000,     0,   411.765, 0.00000E+0, 1.66000E-1, 0.00000E+0, 0.00000E+0,1.00000,0,  100.0,   350.000,   180.000,   1,1.0000
152326,'1 ',   350.000,   103.202,   186.000,     0.000,1.00000,     0,   411.765, 0.00000E+0, 1.85000E-1, 0.00000E+0, 0.00000E+0,1.00000,1,  100.0,   350.000,   180.000,   1,1.0000
152329,'1 ',   350.000,   103.202,   186.000,     0.000,1.00000,     0,   411.765, 0.00000E+0, 1.85000E-1, 0.00000E+0, 0.00000E+0,1.00000,1,  100.0,   350.000,   180.000,   1,1.0000
152334,'1 ',   135.000,    84.000,    84.000,     0.000,1.00000,     0,   158.824, 0.00000E+0, 1.41700E-1, 0.00000E+0, 0.00000E+0,1.00000,1,  100.0,   135.000,    80.000,   1,1.0000
152336,'1 ',   135.000,    55.620,    84.000,     0.000,1.00000,     0,   158.824, 0.00000E+0, 1.41700E-1, 0.00000E+0, 0.00000E+0,1.00000,0,  100.0,   135.000,    80.000,   1,1.0000
152339,'1 ',   330.000,    38.735,   186.000,     0.000,0.99000,     0,   388.235, 0.00000E+0, 1.40000E-1, 0.00000E+0, 0.00000E+0,1.00000,1,  100.0,   330.000,   165.000,   1,1.0000
152340,'1 ',   330.000,    22.245,   186.000,     0.000,0.99000,     0,   388.235, 0.00000E+0, 1.40000E-1, 0.00000E+0, 0.00000E+0,1.00000,0,  100.0,   330.000,   165.000,   1,1.0000
152353,'1 ',   150.000,    84.000,    84.000,     0.000,1.00000,     0,   176.470, 0.00000E+0, 2.17800E-1, 0.00000E+0, 0.00000E+0,1.00000,1,  100.0,   150.000,   128.000,   1,1.0000
152356,'1 ',   150.000,    84.000,    84.000,     0.000,1.00000,     0,   176.470, 0.00000E+0, 2.17800E-1, 0.00000E+0, 0.00000E+0,1.00000,1,  100.0,   150.000,   128.000,   1,1.0000
152359,'1 ',   135.000,    70.000,    84.000,     0.000,1.00000,     0,   158.824, 0.00000E+0, 1.79000E-1, 0.00000E+0, 0.00000E+0,1.00000,0,  100.0,   135.000,    80.000,   1,1.0000
152405,'1 ',   135.000,    52.763,    84.000,     0.000,1.00000,     0,   158.824, 0.00000E+0, 1.79000E-1, 0.00000E+0, 0.00000E+0,1.00000,1,  100.0,   135.000,    80.000,   1,1.0000
152408,'1 ',   135.000,    43.488,    84.000,     0.000,1.00000,     0,   158.824, 0.00000E+0, 1.79000E-1, 0.00000E+0, 0.00000E+0,1.00000,0,  100.0,   135.000,    80.000,   1,1.0000
152439,'1 ',   300.000,   140.828,   186.000,     0.000,1.00000,     0,   352.940, 0.00000E+0, 1.68000E-1, 0.00000E+0, 0.00000E+0,1.00000,1,  100.0,   300.000,   150.000,   1,1.0000
152441,'1 ',   300.000,   124.089,   186.000,     0.000,1.00000,     0,   352.940, 0.00000E+0, 1.68000E-1, 0.00000E+0, 0.00000E+0,1.00000,1,  100.0,   300.000,   150.000,   1,1.0000
152442,'1 ',   300.000,   129.992,   186.000,     0.000,1.00000,     0,   352.940, 0.00000E+0, 1.74000E-1, 0.00000E+0, 0.00000E+0,1.00000,0,  100.0,   300.000,   150.000,   1,1.0000
152443,'1 ',   300.000,   140.000,   186.000,     0.000,1.00000,     0,   352.940, 0.00000E+0, 1.74000E-1, 0.00000E+0, 0.00000E+0,1.00000,0,  100.0,   300.000,   150.000,   1,1.0000
152453,'1 ',   330.000,   119.242,   186.000,     0.000,1.00000,     0,   366.667, 0.00000E+0, 1.45000E-1, 0.00000E+0, 0.00000E+0,1.00000,1,  100.0,   330.000,   165.000,   1,1.0000
152454,'1 ',   330.000,   118.394,   186.000,     0.000,1.00000,     0,   366.667, 0.00000E+0, 1.57000E-1, 0.00000E+0, 0.00000E+0,1.00000,1,  100.0,   330.000,   165.000,   1,1.0000
152531,'1 ',   145.000,    69.634,    84.000,     0.000,1.00000,     0,   170.588, 0.00000E+0, 1.42000E-1, 0.00000E+0, 0.00000E+0,1.00000,1,  100.0,   145.000,    80.000,   1,1.0000
152533,'1 ',   145.000,    70.634,    84.000,     0.000,1.00000,     0,   170.588, 0.00000E+0, 1.42000E-1, 0.00000E+0, 0.00000E+0,1.00000,1,  100.0,   145.000,    80.000,   1,1.0000
152535,'1 ',   145.000,    76.683,    84.000,     0.000,1.00000,     0,   170.588, 0.00000E+0, 1.95000E-1, 0.00000E+0, 0.00000E+0,1.00000,1,  100.0,   145.000,    80.000,   1,1.0000
152537,'1 ',   145.000,    69.321,    84.000,     0.000,1.00000,     0,   170.588, 0.00000E+0, 1.95000E-1, 0.00000E+0, 0.00000E+0,1.00000,1,  100.0,   145.000,    80.000,   1,1.0000
152558,'1 ',   600.000,   178.278,   290.000,     0.000,0.99000,     0,   666.667, 0.00000E+0, 2.11000E-1, 0.00000E+0, 0.00000E+0,1.00000,1,  100.0,   600.000,   360.000,   1,1.0000
152560,'1 ',   600.000,   126.629,   290.000,     0.000,0.99000,     0,   666.667, 0.00000E+0, 2.11000E-1, 0.00000E+0, 0.00000E+0,1.00000,1,  100.0,   600.000,   360.000,   1,1.0000
152561,'1 ',   650.000,   133.624,   290.000,     0.000,0.99000,     0,   722.222, 0.00000E+0, 2.05000E-1, 0.00000E+0, 0.00000E+0,1.00000,1,  100.0,   650.000,   360.000,   1,1.0000
152562,'1 ',   650.000,   133.624,   290.000,     0.000,0.99000,     0,   722.222, 0.00000E+0, 2.05000E-1, 0.00000E+0, 0.00000E+0,1.00000,1,  100.0,   650.000,   360.000,   1,1.0000
152575,'1 ',   140.000,    84.000,    84.000,     0.000,0.99000,     0,   164.700, 0.00000E+0, 1.42000E-1, 0.00000E+0, 0.00000E+0,1.00000,0,  100.0,   140.000,    77.000,   1,1.0000
152578,'1 ',   140.000,    55.000,    84.000,     0.000,0.99000,     0,   164.700, 0.00000E+0, 1.42000E-1, 0.00000E+0, 0.00000E+0,1.00000,0,  100.0,   140.000,    77.000,   1,1.0000
152579,'1 ',   330.000,   122.078,   186.000,     0.000,1.00000,     0,   388.235, 0.00000E+0, 1.89000E-1, 0.00000E+0, 0.00000E+0,1.00000,1,  100.0,   330.000,   165.000,   1,1.0000
152580,'1 ',   330.000,   139.893,   186.000,     0.000,1.00000,     0,   388.235, 0.00000E+0, 1.89000E-1, 0.00000E+0, 0.00000E+0,1.00000,0,  100.0,   330.000,   165.000,   1,1.0000
152601,'1 ',   140.000,    68.000,    77.000,     0.000,1.00000,     0,   164.706, 0.00000E+0, 1.80000E-1, 0.00000E+0, 0.00000E+0,1.00000,0,  100.0,   140.000,    77.000,   1,1.0000
152603,'1 ',   140.000,    77.000,    77.000,     0.000,1.00000,     0,   164.706, 0.00000E+0, 1.80000E-1, 0.00000E+0, 0.00000E+0,1.00000,0,  100.0,   140.000,    77.000,   1,1.0000
152605,'1 ',   140.000,    69.460,    84.000,     0.000,1.00000,     0,   164.706, 0.00000E+0, 1.49600E-1, 0.00000E+0, 0.00000E+0,1.00000,1,  100.0,   140.000,    77.000,   1,1.0000
152606,'1 ',   140.000,    69.218,    84.000,     0.000,1.00000,     0,   164.706, 0.00000E+0, 1.49600E-1, 0.00000E+0, 0.00000E+0,1.00000,1,  100.0,   140.000,    77.000,   1,1.0000
152607,'1 ',   140.000,    43.851,    84.000,     0.000,1.00000,     0,   164.706, 0.00000E+0, 1.49600E-1, 0.00000E+0, 0.00000E+0,1.00000,0,  100.0,   140.000,    77.000,   1,1.0000
152642,'1 ',   110.000,    60.000,    62.000,     0.000,1.00000,     0,   129.400, 0.00000E+0, 1.71800E-1, 0.00000E+0, 0.00000E+0,1.00000,0,  100.0,   110.000,    55.000,   1,1.0000
152644,'1 ',   220.000,   124.000,   124.000,     0.000,1.00000,     0,   258.824, 0.00000E+0, 1.44300E-1, 0.00000E+0, 0.00000E+0,1.00000,0,  100.0,   220.000,   110.000,   1,1.0000
152645,'1 ',   220.000,   124.000,   124.000,     0.000,1.00000,     0,   258.824, 0.00000E+0, 1.56000E-1, 0.00000E+0, 0.00000E+0,1.00000,1,  100.0,   220.000,   110.000,   1,1.0000
152646,'1 ',   220.000,   124.000,   124.000,     0.000,1.00000,     0,   258.824, 0.00000E+0, 1.56000E-1, 0.00000E+0, 0.00000E+0,1.00000,1,  100.0,   220.000,   110.000,   1,1.0000
152648,'1 ',   220.000,   100.000,   124.000,     0.000,1.00000,     0,   258.820, 0.00000E+0, 1.56000E-1, 0.00000E+0, 0.00000E+0,1.00000,0,  100.0,   220.000,   110.000,   1,1.0000
152660,'1 ',   330.000,    72.249,   186.000,     0.000,1.00000,     0,   388.235, 0.00000E+0, 1.55000E-1, 0.00000E+0, 0.00000E+0,1.00000,1,  100.0,   330.000,   165.000,   1,1.0000
152662,'1 ',   330.000,   180.000,   186.000,     0.000,1.00000,     0,   388.235, 0.00000E+0, 1.55000E-1, 0.00000E+0, 0.00000E+0,1.00000,0,  100.0,   330.000,   165.000,   1,1.0000
152743,'1 ',    71.500,    40.607,    55.000,     0.000,1.00000,     0,    89.375, 0.00000E+0, 1.64400E-1, 0.00000E+0, 0.00000E+0,1.00000,1,  100.0,    71.500,    65.000,   1,1.0000
152745,'1 ',    71.500,    40.848,    55.000,     0.000,1.00000,     0,    89.375, 0.00000E+0, 1.64400E-1, 0.00000E+0, 0.00000E+0,1.00000,1,  100.0,    71.500,    65.000,   1,1.0000
152746,'1 ',   145.000,    84.000,    84.000,     0.000,1.00000,     0,   170.588, 0.00000E+0, 2.17800E-1, 0.00000E+0, 0.00000E+0,1.00000,1,  100.0,   145.000,    80.000,   1,1.0000
152748,'1 ',   145.000,    55.000,    84.000,     0.000,1.00000,     0,   170.588, 0.00000E+0, 2.17800E-1, 0.00000E+0, 0.00000E+0,1.00000,0,  100.0,   145.000,    80.000,   1,1.0000
152779,'1 ',   330.000,   186.000,   186.000,     0.000,1.00000,     0,   388.235, 0.00000E+0, 1.70000E-1, 0.00000E+0, 0.00000E+0,1.00000,0,  100.0,   330.000,   165.000,   1,1.0000
152781,'1 ',   330.000,   180.000,   186.000,     0.000,1.00000,     0,   388.235, 0.00000E+0, 1.70000E-1, 0.00000E+0, 0.00000E+0,1.00000,0,  100.0,   330.000,   165.000,   1,1.0000
152837,'1 ',   300.000,   143.564,   186.000,     0.000,1.00000,     0,   353.000, 0.00000E+0, 2.56400E-1, 0.00000E+0, 0.00000E+0,1.00000,1,  100.0,   300.000,   165.000,   1,1.0000
152839,'1 ',   300.000,   175.000,   186.000,     0.000,1.00000,     0,   353.000, 0.00000E+0, 2.56400E-1, 0.00000E+0, 0.00000E+0,1.00000,0,  100.0,   300.000,   165.000,   1,1.0000
152840,'1 ',   300.000,   138.100,   186.000,     0.000,1.00000,     0,   352.940, 0.00000E+0, 1.60000E-1, 0.00000E+0, 0.00000E+0,1.00000,1,  100.0,   300.000,   150.000,   1,1.0000
152841,'1 ',   300.000,   180.000,   186.000,     0.000,1.00000,     0,   352.940, 0.00000E+0, 1.60000E-1, 0.00000E+0, 0.00000E+0,1.00000,0,  100.0,   300.000,   150.000,   1,1.0000
152874,'1 ',   350.000,   151.629,   217.000,     0.000,1.00000,     0,   411.765, 0.00000E+0, 2.05000E-1, 0.00000E+0, 0.00000E+0,1.00000,1,  100.0,   350.000,   175.000,   1,1.0000
152876,'1 ',   350.000,   151.629,   217.000,     0.000,1.00000,     0,   411.765, 0.00000E+0, 2.05000E-1, 0.00000E+0, 0.00000E+0,1.00000,1,  100.0,   350.000,   175.000,   1,1.0000
152877,'1 ',   680.000,   206.593,   290.000,     0.000,1.00000,     0,   755.556, 0.00000E+0, 2.29000E-1, 0.00000E+0, 0.00000E+0,1.00000,1,  100.0,   680.000,   340.000,   1,1.0000
152878,'1 ',   680.000,   206.593,   290.000,     0.000,1.00000,     0,   755.556, 0.00000E+0, 2.29000E-1, 0.00000E+0, 0.00000E+0,1.00000,1,  100.0,   680.000,   340.000,   1,1.0000
152932,'1 ',   200.000,   124.000,   124.000,     0.000,1.00000,     0,   235.300, 0.00000E+0, 1.81000E-1, 0.00000E+0, 0.00000E+0,1.00000,1,  100.0,   200.000,   120.000,   1,1.0000
152935,'1 ',   200.000,   120.000,   124.000,     0.000,1.00000,     0,   235.300, 0.00000E+0, 1.81000E-1, 0.00000E+0, 0.00000E+0,1.00000,0,  100.0,   200.000,   120.000,   1,1.0000
152937,'1 ',   300.000,   114.238,   186.000,     0.000,1.00000,     0,   352.940, 0.00000E+0, 1.61800E-1, 0.00000E+0, 0.00000E+0,1.00000,1,  100.0,   300.000,   180.000,   1,1.0000
152938,'1 ',   300.000,   135.768,   186.000,     0.000,1.00000,     0,   352.940, 0.00000E+0, 1.61800E-1, 0.00000E+0, 0.00000E+0,1.00000,0,  100.0,   300.000,   180.000,   1,1.0000
152950,'1 ',   220.000,    50.247,   124.000,     0.000,1.00000,     0,   258.824, 0.00000E+0, 1.44400E-1, 0.00000E+0, 0.00000E+0,1.00000,1,  100.0,   220.000,   135.000,   1,1.0000
152952,'1 ',   220.000,    50.247,   124.000,     0.000,1.00000,     0,   258.824, 0.00000E+0, 1.44400E-1, 0.00000E+0, 0.00000E+0,1.00000,1,  100.0,   220.000,   135.000,   1,1.0000
152965,'1 ',   140.000,    72.000,    77.000,     0.000,1.00000,     0,   164.706, 0.00000E+0, 1.80000E-1, 0.00000E+0, 0.00000E+0,1.00000,0,  100.0,   140.000,    70.000,   1,1.0000
152967,'1 ',   330.000,   122.495,   186.000,     0.000,1.00000,     0,   388.235, 0.00000E+0, 1.55000E-1, 0.00000E+0, 0.00000E+0,1.00000,1,  100.0,   330.000,   150.000,   1,1.0000
152968,'1 ',   300.000,   119.509,   186.000,     0.000,1.00000,     0,   352.940, 0.00000E+0, 1.55000E-1, 0.00000E+0, 0.00000E+0,1.00000,1,  100.0,   300.000,   150.000,   1,1.0000
152979,'1 ',   315.000,   180.446,   186.000,     0.000,1.00000,     0,   370.590, 0.00000E+0, 2.56400E-1, 0.00000E+0, 0.00000E+0,1.00000,0,  100.0,   315.000,   165.000,   1,1.0000
152981,'1 ',   315.000,   109.630,   186.000,     0.000,1.00000,     0,   370.590, 0.00000E+0, 2.56400E-1, 0.00000E+0, 0.00000E+0,1.00000,1,  100.0,   315.000,   165.000,   1,1.0000
152982,'1 ',   315.000,   115.622,   186.000,     0.000,1.00000,     0,   370.590, 0.00000E+0, 2.56400E-1, 0.00000E+0, 0.00000E+0,1.00000,1,  100.0,   315.000,   165.000,   1,1.0000
152983,'1 ',   315.000,    83.137,   186.000,     0.000,1.00000,     0,   370.590, 0.00000E+0, 2.56400E-1, 0.00000E+0, 0.00000E+0,1.00000,0,  100.0,   315.000,   165.000,   1,1.0000
152988,'1 ',   330.000,    88.688,   186.000,     0.000,1.00000,     0,   388.235, 0.00000E+0, 1.74000E-1, 0.00000E+0, 0.00000E+0,1.00000,1,  100.0,   330.000,   165.000,   1,1.0000
...